<?xml version="1.0" encoding="UTF-8"?>

<!-- generated on 2023-11-29 11:35:41 by Eclipse SUMO netedit Version 1.18.0
<configuration xmlns:xsi="http://www.w3.org/2001/XMLSchema-instance" xsi:noNamespaceSchemaLocation="http://sumo.dlr.de/xsd/neteditConfiguration.xsd">

    <input>
        <sumo-net-file value="C:\Program Files (x86)\Eclipse\test1129.net.xml"/>
    </input>

    <processing>
        <offset.disable-normalization value="true"/>
    </processing>

    <junctions>
        <no-turnarounds value="true"/>
    </junctions>

    <netedit>
        <new-network value="false"/>
    </netedit>

</configuration>
-->

<edges>
    <edge id="-E0" from="J1" to="J0" priority="-1" numLanes="5" speed="13.89"/>
    <edge id="-E1" from="J2" to="J0" priority="-1" numLanes="5" speed="13.89"/>
    <edge id="-E2" from="J3" to="J0" priority="-1" numLanes="5" speed="13.89"/>
    <edge id="E0" from="J0" to="J1" priority="-1" numLanes="5" speed="13.89"/>
    <edge id="E1" from="J0" to="J2" priority="-1" numLanes="5" speed="13.89"/>
    <edge id="E2" from="J0" to="J3" priority="-1" numLanes="5" speed="13.89"/>
    <edge id="E3" from="J0" to="J4" priority="-1" numLanes="5" speed="13.89"/>
    <edge id="E4" from="J4" to="J0" priority="-1" numLanes="5" speed="13.89"/>
</edges>
