<?xml version="1.0" encoding="UTF-8"?>

<!-- generated on 2023-11-29 11:35:41 by Eclipse SUMO netedit Version 1.18.0
<configuration xmlns:xsi="http://www.w3.org/2001/XMLSchema-instance" xsi:noNamespaceSchemaLocation="http://sumo.dlr.de/xsd/neteditConfiguration.xsd">

    <input>
        <sumo-net-file value="C:\Program Files (x86)\Eclipse\test1129.net.xml"/>
    </input>

    <processing>
        <offset.disable-normalization value="true"/>
    </processing>

    <junctions>
        <no-turnarounds value="true"/>
    </junctions>

    <netedit>
        <new-network value="false"/>
    </netedit>

</configuration>
-->

<nodes>
    <node id="J0" x="0.00" y="100.00" type="traffic_light"/>
    <node id="J1" x="-100.00" y="100.00" type="priority"/>
    <node id="J2" x="100.00" y="100.00" type="priority"/>
    <node id="J3" x="0.00" y="0.00" type="priority"/>
    <node id="J4" x="0.00" y="200.00" type="priority"/>
</nodes>
