<?xml version="1.0" encoding="UTF-8"?>

<!-- generated on 2023-11-29 11:16:18 by Eclipse SUMO netedit Version 1.18.0
<configuration xmlns:xsi="http://www.w3.org/2001/XMLSchema-instance" xsi:noNamespaceSchemaLocation="http://sumo.dlr.de/xsd/neteditConfiguration.xsd">

    <input>
        <sumo-net-file value="C:\Program Files (x86)\Eclipse\test1129.net.xml"/>
    </input>

    <output>
        <output-file value="C:\Program Files (x86)\Eclipse\test1129.net.xml"/>
    </output>

    <processing>
        <offset.disable-normalization value="true"/>
    </processing>

    <junctions>
        <no-turnarounds value="true"/>
    </junctions>

    <netedit>
        <new-network value="false"/>
    </netedit>

</configuration>
-->

<net version="0.27" junctionCornerDetail="5" limitTurnSpeed="5.50" xmlns:xsi="http://www.w3.org/2001/XMLSchema-instance" xsi:noNamespaceSchemaLocation="http://sumo.dlr.de/xsd/net_file.xsd">

    <location netOffset="0.00,0.00" convBoundary="-100.00,0.00,100.00,200.00" origBoundary="10000000000.00,10000000000.00,-10000000000.00,-10000000000.00" projParameter="!"/>

    <edge id=":J0_0" function="internal">
        <lane id=":J0_0_0" index="0" speed="13.89" length="9.03" shape="-14.40,120.00 -14.75,117.55 -15.80,115.80 -17.55,114.75 -20.00,114.40"/>
    </edge>
    <edge id=":J0_1" function="internal">
        <lane id=":J0_1_0" index="0" speed="13.89" length="40.00" shape="-14.40,120.00 -14.40,80.00"/>
        <lane id=":J0_1_1" index="1" speed="13.89" length="40.00" shape="-11.20,120.00 -11.20,80.00"/>
        <lane id=":J0_1_2" index="2" speed="13.89" length="40.00" shape="-8.00,120.00 -8.00,80.00"/>
        <lane id=":J0_1_3" index="3" speed="13.89" length="40.00" shape="-4.80,120.00 -4.80,80.00"/>
        <lane id=":J0_1_4" index="4" speed="13.89" length="40.00" shape="-1.60,120.00 -1.60,80.00"/>
    </edge>
    <edge id=":J0_6" function="internal">
        <lane id=":J0_6_0" index="0" speed="13.89" length="5.01" shape="-1.60,120.00 -0.89,115.04"/>
    </edge>
    <edge id=":J0_28" function="internal">
        <lane id=":J0_28_0" index="0" speed="13.89" length="29.82" shape="-0.89,115.04 -0.25,110.55 3.80,103.80 10.55,99.75 20.00,98.40"/>
    </edge>
    <edge id=":J0_7" function="internal">
        <lane id=":J0_7_0" index="0" speed="13.89" length="9.03" shape="20.00,114.40 17.55,114.75 15.80,115.80 14.75,117.55 14.40,120.00"/>
    </edge>
    <edge id=":J0_8" function="internal">
        <lane id=":J0_8_0" index="0" speed="13.89" length="40.00" shape="20.00,114.40 -20.00,114.40"/>
        <lane id=":J0_8_1" index="1" speed="13.89" length="40.00" shape="20.00,111.20 -20.00,111.20"/>
        <lane id=":J0_8_2" index="2" speed="13.89" length="40.00" shape="20.00,108.00 -20.00,108.00"/>
        <lane id=":J0_8_3" index="3" speed="13.89" length="40.00" shape="20.00,104.80 -20.00,104.80"/>
        <lane id=":J0_8_4" index="4" speed="13.89" length="40.00" shape="20.00,101.60 -20.00,101.60"/>
    </edge>
    <edge id=":J0_13" function="internal">
        <lane id=":J0_13_0" index="0" speed="13.89" length="5.01" shape="20.00,101.60 15.04,100.89"/>
    </edge>
    <edge id=":J0_29" function="internal">
        <lane id=":J0_29_0" index="0" speed="13.89" length="29.82" shape="15.04,100.89 10.55,100.25 3.80,96.20 -0.25,89.45 -1.60,80.00"/>
    </edge>
    <edge id=":J0_14" function="internal">
        <lane id=":J0_14_0" index="0" speed="13.89" length="9.03" shape="14.40,80.00 14.75,82.45 15.80,84.20 17.55,85.25 20.00,85.60"/>
    </edge>
    <edge id=":J0_15" function="internal">
        <lane id=":J0_15_0" index="0" speed="13.89" length="40.00" shape="14.40,80.00 14.40,120.00"/>
        <lane id=":J0_15_1" index="1" speed="13.89" length="40.00" shape="11.20,80.00 11.20,120.00"/>
        <lane id=":J0_15_2" index="2" speed="13.89" length="40.00" shape="8.00,80.00 8.00,120.00"/>
        <lane id=":J0_15_3" index="3" speed="13.89" length="40.00" shape="4.80,80.00 4.80,120.00"/>
        <lane id=":J0_15_4" index="4" speed="13.89" length="40.00" shape="1.60,80.00 1.60,120.00"/>
    </edge>
    <edge id=":J0_20" function="internal">
        <lane id=":J0_20_0" index="0" speed="13.89" length="5.01" shape="1.60,80.00 0.89,84.96"/>
    </edge>
    <edge id=":J0_30" function="internal">
        <lane id=":J0_30_0" index="0" speed="13.89" length="29.82" shape="0.89,84.96 0.25,89.45 -3.80,96.20 -10.55,100.25 -20.00,101.60"/>
    </edge>
    <edge id=":J0_21" function="internal">
        <lane id=":J0_21_0" index="0" speed="13.89" length="9.03" shape="-20.00,85.60 -17.55,85.25 -15.80,84.20 -14.75,82.45 -14.40,80.00"/>
    </edge>
    <edge id=":J0_22" function="internal">
        <lane id=":J0_22_0" index="0" speed="13.89" length="40.00" shape="-20.00,85.60 20.00,85.60"/>
        <lane id=":J0_22_1" index="1" speed="13.89" length="40.00" shape="-20.00,88.80 20.00,88.80"/>
        <lane id=":J0_22_2" index="2" speed="13.89" length="40.00" shape="-20.00,92.00 20.00,92.00"/>
        <lane id=":J0_22_3" index="3" speed="13.89" length="40.00" shape="-20.00,95.20 20.00,95.20"/>
        <lane id=":J0_22_4" index="4" speed="13.89" length="40.00" shape="-20.00,98.40 20.00,98.40"/>
    </edge>
    <edge id=":J0_27" function="internal">
        <lane id=":J0_27_0" index="0" speed="13.89" length="5.01" shape="-20.00,98.40 -15.04,99.11"/>
    </edge>
    <edge id=":J0_31" function="internal">
        <lane id=":J0_31_0" index="0" speed="13.89" length="29.82" shape="-15.04,99.11 -10.55,99.75 -3.80,103.80 0.25,110.55 1.60,120.00"/>
    </edge>

    <edge id="-E0" from="J1" to="J0" priority="-1">
        <lane id="-E0_0" index="0" speed="13.89" length="80.00" shape="-100.00,85.60 -20.00,85.60"/>
        <lane id="-E0_1" index="1" speed="13.89" length="80.00" shape="-100.00,88.80 -20.00,88.80"/>
        <lane id="-E0_2" index="2" speed="13.89" length="80.00" shape="-100.00,92.00 -20.00,92.00"/>
        <lane id="-E0_3" index="3" speed="13.89" length="80.00" shape="-100.00,95.20 -20.00,95.20"/>
        <lane id="-E0_4" index="4" speed="13.89" length="80.00" shape="-100.00,98.40 -20.00,98.40"/>
    </edge>
    <edge id="-E1" from="J2" to="J0" priority="-1">
        <lane id="-E1_0" index="0" speed="13.89" length="80.00" shape="100.00,114.40 20.00,114.40"/>
        <lane id="-E1_1" index="1" speed="13.89" length="80.00" shape="100.00,111.20 20.00,111.20"/>
        <lane id="-E1_2" index="2" speed="13.89" length="80.00" shape="100.00,108.00 20.00,108.00"/>
        <lane id="-E1_3" index="3" speed="13.89" length="80.00" shape="100.00,104.80 20.00,104.80"/>
        <lane id="-E1_4" index="4" speed="13.89" length="80.00" shape="100.00,101.60 20.00,101.60"/>
    </edge>
    <edge id="-E2" from="J3" to="J0" priority="-1">
        <lane id="-E2_0" index="0" speed="13.89" length="80.00" shape="14.40,0.00 14.40,80.00"/>
        <lane id="-E2_1" index="1" speed="13.89" length="80.00" shape="11.20,0.00 11.20,80.00"/>
        <lane id="-E2_2" index="2" speed="13.89" length="80.00" shape="8.00,0.00 8.00,80.00"/>
        <lane id="-E2_3" index="3" speed="13.89" length="80.00" shape="4.80,0.00 4.80,80.00"/>
        <lane id="-E2_4" index="4" speed="13.89" length="80.00" shape="1.60,0.00 1.60,80.00"/>
    </edge>
    <edge id="E0" from="J0" to="J1" priority="-1">
        <lane id="E0_0" index="0" speed="13.89" length="80.00" shape="-20.00,114.40 -100.00,114.40"/>
        <lane id="E0_1" index="1" speed="13.89" length="80.00" shape="-20.00,111.20 -100.00,111.20"/>
        <lane id="E0_2" index="2" speed="13.89" length="80.00" shape="-20.00,108.00 -100.00,108.00"/>
        <lane id="E0_3" index="3" speed="13.89" length="80.00" shape="-20.00,104.80 -100.00,104.80"/>
        <lane id="E0_4" index="4" speed="13.89" length="80.00" shape="-20.00,101.60 -100.00,101.60"/>
    </edge>
    <edge id="E1" from="J0" to="J2" priority="-1">
        <lane id="E1_0" index="0" speed="13.89" length="80.00" shape="20.00,85.60 100.00,85.60"/>
        <lane id="E1_1" index="1" speed="13.89" length="80.00" shape="20.00,88.80 100.00,88.80"/>
        <lane id="E1_2" index="2" speed="13.89" length="80.00" shape="20.00,92.00 100.00,92.00"/>
        <lane id="E1_3" index="3" speed="13.89" length="80.00" shape="20.00,95.20 100.00,95.20"/>
        <lane id="E1_4" index="4" speed="13.89" length="80.00" shape="20.00,98.40 100.00,98.40"/>
    </edge>
    <edge id="E2" from="J0" to="J3" priority="-1">
        <lane id="E2_0" index="0" speed="13.89" length="80.00" shape="-14.40,80.00 -14.40,0.00"/>
        <lane id="E2_1" index="1" speed="13.89" length="80.00" shape="-11.20,80.00 -11.20,0.00"/>
        <lane id="E2_2" index="2" speed="13.89" length="80.00" shape="-8.00,80.00 -8.00,0.00"/>
        <lane id="E2_3" index="3" speed="13.89" length="80.00" shape="-4.80,80.00 -4.80,0.00"/>
        <lane id="E2_4" index="4" speed="13.89" length="80.00" shape="-1.60,80.00 -1.60,0.00"/>
    </edge>
    <edge id="E3" from="J0" to="J4" priority="-1">
        <lane id="E3_0" index="0" speed="13.89" length="80.00" shape="14.40,120.00 14.40,200.00"/>
        <lane id="E3_1" index="1" speed="13.89" length="80.00" shape="11.20,120.00 11.20,200.00"/>
        <lane id="E3_2" index="2" speed="13.89" length="80.00" shape="8.00,120.00 8.00,200.00"/>
        <lane id="E3_3" index="3" speed="13.89" length="80.00" shape="4.80,120.00 4.80,200.00"/>
        <lane id="E3_4" index="4" speed="13.89" length="80.00" shape="1.60,120.00 1.60,200.00"/>
    </edge>
    <edge id="E4" from="J4" to="J0" priority="-1">
        <lane id="E4_0" index="0" speed="13.89" length="80.00" shape="-14.40,200.00 -14.40,120.00"/>
        <lane id="E4_1" index="1" speed="13.89" length="80.00" shape="-11.20,200.00 -11.20,120.00"/>
        <lane id="E4_2" index="2" speed="13.89" length="80.00" shape="-8.00,200.00 -8.00,120.00"/>
        <lane id="E4_3" index="3" speed="13.89" length="80.00" shape="-4.80,200.00 -4.80,120.00"/>
        <lane id="E4_4" index="4" speed="13.89" length="80.00" shape="-1.60,200.00 -1.60,120.00"/>
    </edge>

    <tlLogic id="J0" type="static" programID="0" offset="0">
        <phase duration="42" state="GGGGGGgrrrrrrrGGGGGGgrrrrrrr"/>
        <phase duration="3"  state="yyyyyyyrrrrrrryyyyyyyrrrrrrr"/>
        <phase duration="42" state="rrrrrrrGGGGGGgrrrrrrrGGGGGGg"/>
        <phase duration="3"  state="rrrrrrryyyyyyyrrrrrrryyyyyyy"/>
    </tlLogic>

    <junction id="J0" type="traffic_light" x="0.00" y="100.00" incLanes="E4_0 E4_1 E4_2 E4_3 E4_4 -E1_0 -E1_1 -E1_2 -E1_3 -E1_4 -E2_0 -E2_1 -E2_2 -E2_3 -E2_4 -E0_0 -E0_1 -E0_2 -E0_3 -E0_4" intLanes=":J0_0_0 :J0_1_0 :J0_1_1 :J0_1_2 :J0_1_3 :J0_1_4 :J0_28_0 :J0_7_0 :J0_8_0 :J0_8_1 :J0_8_2 :J0_8_3 :J0_8_4 :J0_29_0 :J0_14_0 :J0_15_0 :J0_15_1 :J0_15_2 :J0_15_3 :J0_15_4 :J0_30_0 :J0_21_0 :J0_22_0 :J0_22_1 :J0_22_2 :J0_22_3 :J0_22_4 :J0_31_0" shape="-16.00,120.00 16.00,120.00 16.44,117.78 17.00,117.00 17.78,116.44 18.78,116.11 20.00,116.00 20.00,84.00 17.78,83.56 17.00,83.00 16.44,82.22 16.11,81.22 16.00,80.00 -16.00,80.00 -16.44,82.22 -17.00,83.00 -17.78,83.56 -18.78,83.89 -20.00,84.00 -20.00,116.00 -17.78,116.44 -17.00,117.00 -16.44,117.78 -16.11,118.78">
        <request index="0"  response="0000000000000000000000000000" foes="0000000000000001111100000000" cont="0"/>
        <request index="1"  response="1000000000000010000000000000" foes="1111111100000011111100000000" cont="0"/>
        <request index="2"  response="1000000000000010000000000000" foes="1111111100000011111100000000" cont="0"/>
        <request index="3"  response="1000000000000010000000000000" foes="1111111100000011111100000000" cont="0"/>
        <request index="4"  response="1000000000000010000000000000" foes="1111111100000011111100000000" cont="0"/>
        <request index="5"  response="1000000000000010000000000000" foes="1111111100000011111100000000" cont="0"/>
        <request index="6"  response="1000000011111010000000000000" foes="1111110011111011111100000000" cont="1"/>
        <request index="7"  response="0000000011111000000000000000" foes="0000000011111000000000000000" cont="0"/>
        <request index="8"  response="0000000111111000000001111111" foes="1000000111111000000001111111" cont="0"/>
        <request index="9"  response="0000000111111000000001111111" foes="1000000111111000000001111111" cont="0"/>
        <request index="10" response="0000000111111000000001111111" foes="1000000111111000000001111111" cont="0"/>
        <request index="11" response="0000000111111000000001111111" foes="1000000111111000000001111111" cont="0"/>
        <request index="12" response="0000000111111000000001111111" foes="1000000111111000000001111111" cont="0"/>
        <request index="13" response="0111110111111000000001111110" foes="0111110111111000000001111110" cont="1"/>
        <request index="14" response="0000000000000000000000000000" foes="0111110000000000000000000000" cont="0"/>
        <request index="15" response="1000000000000010000000000000" foes="1111110000000011111111000000" cont="0"/>
        <request index="16" response="1000000000000010000000000000" foes="1111110000000011111111000000" cont="0"/>
        <request index="17" response="1000000000000010000000000000" foes="1111110000000011111111000000" cont="0"/>
        <request index="18" response="1000000000000010000000000000" foes="1111110000000011111111000000" cont="0"/>
        <request index="19" response="1000000000000010000000000000" foes="1111110000000011111111000000" cont="0"/>
        <request index="20" response="1000000000000010000000111110" foes="1111110000000011111100111110" cont="1"/>
        <request index="21" response="0000000000000000000000111110" foes="0000000000000000000000111110" cont="0"/>
        <request index="22" response="0000000111111100000001111110" foes="0000000111111110000001111110" cont="0"/>
        <request index="23" response="0000000111111100000001111110" foes="0000000111111110000001111110" cont="0"/>
        <request index="24" response="0000000111111100000001111110" foes="0000000111111110000001111110" cont="0"/>
        <request index="25" response="0000000111111100000001111110" foes="0000000111111110000001111110" cont="0"/>
        <request index="26" response="0000000111111100000001111110" foes="0000000111111110000001111110" cont="0"/>
        <request index="27" response="0000000111111001111101111110" foes="0000000111111001111101111110" cont="1"/>
    </junction>
    <junction id="J1" type="dead_end" x="-100.00" y="100.00" incLanes="E0_0 E0_1 E0_2 E0_3 E0_4" intLanes="" shape="-100.00,100.00 -100.00,116.00 -100.00,100.00"/>
    <junction id="J2" type="dead_end" x="100.00" y="100.00" incLanes="E1_0 E1_1 E1_2 E1_3 E1_4" intLanes="" shape="100.00,100.00 100.00,84.00 100.00,100.00"/>
    <junction id="J3" type="dead_end" x="0.00" y="0.00" incLanes="E2_0 E2_1 E2_2 E2_3 E2_4" intLanes="" shape="0.00,0.00 -16.00,0.00 0.00,0.00"/>
    <junction id="J4" type="dead_end" x="0.00" y="200.00" incLanes="E3_0 E3_1 E3_2 E3_3 E3_4" intLanes="" shape="0.00,200.00 16.00,200.00 0.00,200.00"/>

    <junction id=":J0_28_0" type="internal" x="-0.89" y="115.04" incLanes=":J0_6_0 -E2_0 -E2_1 -E2_2 -E2_3 -E2_4" intLanes=":J0_8_0 :J0_8_1 :J0_8_2 :J0_8_3 :J0_8_4 :J0_13_0 :J0_14_0 :J0_15_0 :J0_15_1 :J0_15_2 :J0_15_3 :J0_15_4 :J0_22_0 :J0_22_1 :J0_22_2 :J0_22_3 :J0_22_4 :J0_27_0"/>
    <junction id=":J0_29_0" type="internal" x="15.04" y="100.89" incLanes=":J0_13_0 -E0_0 -E0_1 -E0_2 -E0_3 -E0_4" intLanes=":J0_1_0 :J0_1_1 :J0_1_2 :J0_1_3 :J0_1_4 :J0_6_0 :J0_15_0 :J0_15_1 :J0_15_2 :J0_15_3 :J0_15_4 :J0_20_0 :J0_21_0 :J0_22_0 :J0_22_1 :J0_22_2 :J0_22_3 :J0_22_4"/>
    <junction id=":J0_30_0" type="internal" x="0.89" y="84.96" incLanes=":J0_20_0 E4_0 E4_1 E4_2 E4_3 E4_4" intLanes=":J0_0_0 :J0_1_0 :J0_1_1 :J0_1_2 :J0_1_3 :J0_1_4 :J0_8_0 :J0_8_1 :J0_8_2 :J0_8_3 :J0_8_4 :J0_13_0 :J0_22_0 :J0_22_1 :J0_22_2 :J0_22_3 :J0_22_4 :J0_27_0"/>
    <junction id=":J0_31_0" type="internal" x="-15.04" y="99.11" incLanes=":J0_27_0 -E1_0 -E1_1 -E1_2 -E1_3 -E1_4" intLanes=":J0_1_0 :J0_1_1 :J0_1_2 :J0_1_3 :J0_1_4 :J0_6_0 :J0_7_0 :J0_8_0 :J0_8_1 :J0_8_2 :J0_8_3 :J0_8_4 :J0_15_0 :J0_15_1 :J0_15_2 :J0_15_3 :J0_15_4 :J0_20_0"/>

    <connection from="-E0" to="E2" fromLane="0" toLane="0" via=":J0_21_0" tl="J0" linkIndex="21" dir="r" state="o"/>
    <connection from="-E0" to="E1" fromLane="0" toLane="0" via=":J0_22_0" tl="J0" linkIndex="22" dir="s" state="o"/>
    <connection from="-E0" to="E1" fromLane="1" toLane="1" via=":J0_22_1" tl="J0" linkIndex="23" dir="s" state="o"/>
    <connection from="-E0" to="E1" fromLane="2" toLane="2" via=":J0_22_2" tl="J0" linkIndex="24" dir="s" state="o"/>
    <connection from="-E0" to="E1" fromLane="3" toLane="3" via=":J0_22_3" tl="J0" linkIndex="25" dir="s" state="o"/>
    <connection from="-E0" to="E1" fromLane="4" toLane="4" via=":J0_22_4" tl="J0" linkIndex="26" dir="s" state="o"/>
    <connection from="-E0" to="E3" fromLane="4" toLane="4" via=":J0_27_0" tl="J0" linkIndex="27" dir="l" state="o"/>
    <connection from="-E1" to="E3" fromLane="0" toLane="0" via=":J0_7_0" tl="J0" linkIndex="7" dir="r" state="o"/>
    <connection from="-E1" to="E0" fromLane="0" toLane="0" via=":J0_8_0" tl="J0" linkIndex="8" dir="s" state="o"/>
    <connection from="-E1" to="E0" fromLane="1" toLane="1" via=":J0_8_1" tl="J0" linkIndex="9" dir="s" state="o"/>
    <connection from="-E1" to="E0" fromLane="2" toLane="2" via=":J0_8_2" tl="J0" linkIndex="10" dir="s" state="o"/>
    <connection from="-E1" to="E0" fromLane="3" toLane="3" via=":J0_8_3" tl="J0" linkIndex="11" dir="s" state="o"/>
    <connection from="-E1" to="E0" fromLane="4" toLane="4" via=":J0_8_4" tl="J0" linkIndex="12" dir="s" state="o"/>
    <connection from="-E1" to="E2" fromLane="4" toLane="4" via=":J0_13_0" tl="J0" linkIndex="13" dir="l" state="o"/>
    <connection from="-E2" to="E1" fromLane="0" toLane="0" via=":J0_14_0" tl="J0" linkIndex="14" dir="r" state="O"/>
    <connection from="-E2" to="E3" fromLane="0" toLane="0" via=":J0_15_0" tl="J0" linkIndex="15" dir="s" state="O"/>
    <connection from="-E2" to="E3" fromLane="1" toLane="1" via=":J0_15_1" tl="J0" linkIndex="16" dir="s" state="O"/>
    <connection from="-E2" to="E3" fromLane="2" toLane="2" via=":J0_15_2" tl="J0" linkIndex="17" dir="s" state="O"/>
    <connection from="-E2" to="E3" fromLane="3" toLane="3" via=":J0_15_3" tl="J0" linkIndex="18" dir="s" state="O"/>
    <connection from="-E2" to="E3" fromLane="4" toLane="4" via=":J0_15_4" tl="J0" linkIndex="19" dir="s" state="O"/>
    <connection from="-E2" to="E0" fromLane="4" toLane="4" via=":J0_20_0" tl="J0" linkIndex="20" dir="l" state="o"/>
    <connection from="E4" to="E0" fromLane="0" toLane="0" via=":J0_0_0" tl="J0" linkIndex="0" dir="r" state="O"/>
    <connection from="E4" to="E2" fromLane="0" toLane="0" via=":J0_1_0" tl="J0" linkIndex="1" dir="s" state="O"/>
    <connection from="E4" to="E2" fromLane="1" toLane="1" via=":J0_1_1" tl="J0" linkIndex="2" dir="s" state="O"/>
    <connection from="E4" to="E2" fromLane="2" toLane="2" via=":J0_1_2" tl="J0" linkIndex="3" dir="s" state="O"/>
    <connection from="E4" to="E2" fromLane="3" toLane="3" via=":J0_1_3" tl="J0" linkIndex="4" dir="s" state="O"/>
    <connection from="E4" to="E2" fromLane="4" toLane="4" via=":J0_1_4" tl="J0" linkIndex="5" dir="s" state="O"/>
    <connection from="E4" to="E1" fromLane="4" toLane="4" via=":J0_6_0" tl="J0" linkIndex="6" dir="l" state="o"/>

    <connection from=":J0_0" to="E0" fromLane="0" toLane="0" dir="r" state="M"/>
    <connection from=":J0_1" to="E2" fromLane="0" toLane="0" dir="s" state="M"/>
    <connection from=":J0_1" to="E2" fromLane="1" toLane="1" dir="s" state="M"/>
    <connection from=":J0_1" to="E2" fromLane="2" toLane="2" dir="s" state="M"/>
    <connection from=":J0_1" to="E2" fromLane="3" toLane="3" dir="s" state="M"/>
    <connection from=":J0_1" to="E2" fromLane="4" toLane="4" dir="s" state="M"/>
    <connection from=":J0_6" to="E1" fromLane="0" toLane="4" via=":J0_28_0" dir="l" state="m"/>
    <connection from=":J0_28" to="E1" fromLane="0" toLane="4" dir="l" state="M"/>
    <connection from=":J0_7" to="E3" fromLane="0" toLane="0" dir="r" state="M"/>
    <connection from=":J0_8" to="E0" fromLane="0" toLane="0" dir="s" state="M"/>
    <connection from=":J0_8" to="E0" fromLane="1" toLane="1" dir="s" state="M"/>
    <connection from=":J0_8" to="E0" fromLane="2" toLane="2" dir="s" state="M"/>
    <connection from=":J0_8" to="E0" fromLane="3" toLane="3" dir="s" state="M"/>
    <connection from=":J0_8" to="E0" fromLane="4" toLane="4" dir="s" state="M"/>
    <connection from=":J0_13" to="E2" fromLane="0" toLane="4" via=":J0_29_0" dir="l" state="m"/>
    <connection from=":J0_29" to="E2" fromLane="0" toLane="4" dir="l" state="M"/>
    <connection from=":J0_14" to="E1" fromLane="0" toLane="0" dir="r" state="M"/>
    <connection from=":J0_15" to="E3" fromLane="0" toLane="0" dir="s" state="M"/>
    <connection from=":J0_15" to="E3" fromLane="1" toLane="1" dir="s" state="M"/>
    <connection from=":J0_15" to="E3" fromLane="2" toLane="2" dir="s" state="M"/>
    <connection from=":J0_15" to="E3" fromLane="3" toLane="3" dir="s" state="M"/>
    <connection from=":J0_15" to="E3" fromLane="4" toLane="4" dir="s" state="M"/>
    <connection from=":J0_20" to="E0" fromLane="0" toLane="4" via=":J0_30_0" dir="l" state="m"/>
    <connection from=":J0_30" to="E0" fromLane="0" toLane="4" dir="l" state="M"/>
    <connection from=":J0_21" to="E2" fromLane="0" toLane="0" dir="r" state="M"/>
    <connection from=":J0_22" to="E1" fromLane="0" toLane="0" dir="s" state="M"/>
    <connection from=":J0_22" to="E1" fromLane="1" toLane="1" dir="s" state="M"/>
    <connection from=":J0_22" to="E1" fromLane="2" toLane="2" dir="s" state="M"/>
    <connection from=":J0_22" to="E1" fromLane="3" toLane="3" dir="s" state="M"/>
    <connection from=":J0_22" to="E1" fromLane="4" toLane="4" dir="s" state="M"/>
    <connection from=":J0_27" to="E3" fromLane="0" toLane="4" via=":J0_31_0" dir="l" state="m"/>
    <connection from=":J0_31" to="E3" fromLane="0" toLane="4" dir="l" state="M"/>

</net>
