<?xml version="1.0" encoding="UTF-8"?>

<!-- generated on 2023-12-03 23:08:16 by Eclipse SUMO netedit Version 1.18.0
<configuration xmlns:xsi="http://www.w3.org/2001/XMLSchema-instance" xsi:noNamespaceSchemaLocation="http://sumo.dlr.de/xsd/neteditConfiguration.xsd">

    <input>
        <sumo-net-file value="C:\Program Files (x86)\Eclipse\test1203.net.xml"/>
    </input>

    <output>
        <output-file value="C:\Program Files (x86)\Eclipse\test1203.net.xml"/>
    </output>

    <processing>
        <geometry.min-radius.fix.railways value="false"/>
        <geometry.max-grade.fix value="false"/>
        <offset.disable-normalization value="true"/>
        <lefthand value="0"/>
    </processing>

    <junctions>
        <no-internal-links value="false"/>
        <no-turnarounds value="true"/>
        <junctions.corner-detail value="5"/>
        <junctions.limit-turn-speed value="5.50"/>
        <rectangular-lane-cut value="0"/>
    </junctions>

    <pedestrian>
        <walkingareas value="1"/>
    </pedestrian>

</configuration>
-->

<net version="1.16" junctionCornerDetail="5" walkingareas="true" limitTurnSpeed="5.50" xmlns:xsi="http://www.w3.org/2001/XMLSchema-instance" xsi:noNamespaceSchemaLocation="http://sumo.dlr.de/xsd/net_file.xsd">

    <location netOffset="0.00,0.00" convBoundary="-100.00,0.00,100.00,200.00" origBoundary="-10000000000.00,-10000000000.00,10000000000.00,10000000000.00" projParameter="!"/>

    <edge id=":J0_0" function="internal">
        <lane id=":J0_0_0" index="0" allow="pedestrian" speed="1.39" length="5.00" shape="-17.60,120.70 -17.79,119.34 -18.38,118.38 -19.34,117.79 -20.70,117.60"/>
    </edge>
    <edge id=":J0_1" function="internal">
        <lane id=":J0_1_0" index="0" allow="pedestrian" speed="1.39" length="41.40" shape="-17.60,120.70 -17.60,79.30"/>
    </edge>
    <edge id=":J0_2" function="internal">
        <lane id=":J0_2_0" index="0" allow="pedestrian" speed="1.39" length="24.78" shape="-17.60,120.70 -8.80,107.50 -0.83,103.52"/>
    </edge>
    <edge id=":J0_3" function="internal">
        <lane id=":J0_3_0" index="0" disallow="pedestrian" speed="6.86" length="3.27" shape="-14.40,120.70 -14.79,117.94 -15.04,117.53"/>
    </edge>
    <edge id=":J0_4" function="internal">
        <lane id=":J0_4_0" index="0" disallow="pedestrian" speed="13.89" length="41.40" shape="-14.40,120.70 -14.40,79.30"/>
        <lane id=":J0_4_1" index="1" disallow="pedestrian" speed="13.89" length="41.40" shape="-11.20,120.70 -11.20,79.30"/>
        <lane id=":J0_4_2" index="2" disallow="pedestrian" speed="13.89" length="41.40" shape="-8.00,120.70 -8.00,79.30"/>
        <lane id=":J0_4_3" index="3" disallow="pedestrian" speed="13.89" length="41.40" shape="-4.80,120.70 -4.80,79.30"/>
        <lane id=":J0_4_4" index="4" disallow="pedestrian" speed="13.89" length="41.40" shape="-1.60,120.70 -1.60,79.30"/>
    </edge>
    <edge id=":J0_9" function="internal">
        <lane id=":J0_9_0" index="0" disallow="pedestrian" speed="12.47" length="5.01" shape="-1.60,120.70 -0.89,115.74"/>
    </edge>
    <edge id=":J0_40" function="internal">
        <lane id=":J0_40_0" index="0" allow="pedestrian" speed="1.39" length="26.63" shape="-0.83,103.52 0.00,103.10 8.80,107.50 17.60,120.70"/>
    </edge>
    <edge id=":J0_41" function="internal">
        <lane id=":J0_41_0" index="0" disallow="pedestrian" speed="6.86" length="6.90" shape="-15.04,117.53 -15.98,115.97 -17.94,114.79 -20.70,114.40"/>
    </edge>
    <edge id=":J0_42" function="internal">
        <lane id=":J0_42_0" index="0" disallow="pedestrian" speed="12.47" length="30.95" shape="-0.89,115.74 -0.21,110.94 3.98,103.97 10.94,99.79 20.70,98.40"/>
    </edge>
    <edge id=":J0_10" function="internal">
        <lane id=":J0_10_0" index="0" allow="pedestrian" speed="1.39" length="5.00" shape="20.70,117.60 19.34,117.79 18.38,118.37 17.79,119.34 17.60,120.70"/>
    </edge>
    <edge id=":J0_11" function="internal">
        <lane id=":J0_11_0" index="0" allow="pedestrian" speed="1.39" length="41.40" shape="20.70,117.60 -20.70,117.60"/>
    </edge>
    <edge id=":J0_12" function="internal">
        <lane id=":J0_12_0" index="0" allow="pedestrian" speed="1.39" length="24.78" shape="20.70,117.60 7.50,108.80 3.52,100.83"/>
    </edge>
    <edge id=":J0_13" function="internal">
        <lane id=":J0_13_0" index="0" disallow="pedestrian" speed="6.86" length="3.27" shape="20.70,114.40 17.94,114.79 17.53,115.04"/>
    </edge>
    <edge id=":J0_14" function="internal">
        <lane id=":J0_14_0" index="0" disallow="pedestrian" speed="13.89" length="41.40" shape="20.70,114.40 -20.70,114.40"/>
        <lane id=":J0_14_1" index="1" disallow="pedestrian" speed="13.89" length="41.40" shape="20.70,111.20 -20.70,111.20"/>
        <lane id=":J0_14_2" index="2" disallow="pedestrian" speed="13.89" length="41.40" shape="20.70,108.00 -20.70,108.00"/>
        <lane id=":J0_14_3" index="3" disallow="pedestrian" speed="13.89" length="41.40" shape="20.70,104.80 -20.70,104.80"/>
        <lane id=":J0_14_4" index="4" disallow="pedestrian" speed="13.89" length="41.40" shape="20.70,101.60 -20.70,101.60"/>
    </edge>
    <edge id=":J0_19" function="internal">
        <lane id=":J0_19_0" index="0" disallow="pedestrian" speed="12.47" length="5.01" shape="20.70,101.60 15.74,100.89"/>
    </edge>
    <edge id=":J0_43" function="internal">
        <lane id=":J0_43_0" index="0" allow="pedestrian" speed="1.39" length="26.63" shape="3.52,100.83 3.10,100.00 7.50,91.20 20.70,82.40"/>
    </edge>
    <edge id=":J0_44" function="internal">
        <lane id=":J0_44_0" index="0" disallow="pedestrian" speed="6.86" length="6.90" shape="17.53,115.04 15.97,115.98 14.79,117.94 14.40,120.70"/>
    </edge>
    <edge id=":J0_45" function="internal">
        <lane id=":J0_45_0" index="0" disallow="pedestrian" speed="12.47" length="30.95" shape="15.74,100.89 10.94,100.21 3.97,96.02 -0.21,89.06 -1.60,79.30"/>
    </edge>
    <edge id=":J0_20" function="internal">
        <lane id=":J0_20_0" index="0" allow="pedestrian" speed="1.39" length="5.00" shape="17.60,79.30 17.79,80.66 18.38,81.62 19.34,82.21 20.70,82.40"/>
    </edge>
    <edge id=":J0_21" function="internal">
        <lane id=":J0_21_0" index="0" allow="pedestrian" speed="1.39" length="41.40" shape="17.60,79.30 17.60,120.70"/>
    </edge>
    <edge id=":J0_22" function="internal">
        <lane id=":J0_22_0" index="0" allow="pedestrian" speed="1.39" length="24.78" shape="17.60,79.30 8.80,92.50 0.83,96.48"/>
    </edge>
    <edge id=":J0_23" function="internal">
        <lane id=":J0_23_0" index="0" disallow="pedestrian" speed="6.86" length="3.27" shape="14.40,79.30 14.79,82.06 15.04,82.47"/>
    </edge>
    <edge id=":J0_24" function="internal">
        <lane id=":J0_24_0" index="0" disallow="pedestrian" speed="13.89" length="41.40" shape="14.40,79.30 14.40,120.70"/>
        <lane id=":J0_24_1" index="1" disallow="pedestrian" speed="13.89" length="41.40" shape="11.20,79.30 11.20,120.70"/>
        <lane id=":J0_24_2" index="2" disallow="pedestrian" speed="13.89" length="41.40" shape="8.00,79.30 8.00,120.70"/>
        <lane id=":J0_24_3" index="3" disallow="pedestrian" speed="13.89" length="41.40" shape="4.80,79.30 4.80,120.70"/>
        <lane id=":J0_24_4" index="4" disallow="pedestrian" speed="13.89" length="41.40" shape="1.60,79.30 1.60,120.70"/>
    </edge>
    <edge id=":J0_29" function="internal">
        <lane id=":J0_29_0" index="0" disallow="pedestrian" speed="12.47" length="5.01" shape="1.60,79.30 0.89,84.26"/>
    </edge>
    <edge id=":J0_46" function="internal">
        <lane id=":J0_46_0" index="0" allow="pedestrian" speed="1.39" length="26.63" shape="0.83,96.48 0.00,96.90 -8.80,92.50 -17.60,79.30"/>
    </edge>
    <edge id=":J0_47" function="internal">
        <lane id=":J0_47_0" index="0" disallow="pedestrian" speed="6.86" length="6.90" shape="15.04,82.47 15.98,84.03 17.94,85.21 20.70,85.60"/>
    </edge>
    <edge id=":J0_48" function="internal">
        <lane id=":J0_48_0" index="0" disallow="pedestrian" speed="12.47" length="30.95" shape="0.89,84.26 0.21,89.06 -3.98,96.03 -10.94,100.21 -20.70,101.60"/>
    </edge>
    <edge id=":J0_30" function="internal">
        <lane id=":J0_30_0" index="0" allow="pedestrian" speed="1.39" length="5.00" shape="-20.70,82.40 -19.34,82.21 -18.38,81.62 -17.79,80.66 -17.60,79.30"/>
    </edge>
    <edge id=":J0_31" function="internal">
        <lane id=":J0_31_0" index="0" allow="pedestrian" speed="1.39" length="41.40" shape="-20.70,82.40 20.70,82.40"/>
    </edge>
    <edge id=":J0_32" function="internal">
        <lane id=":J0_32_0" index="0" allow="pedestrian" speed="1.39" length="24.78" shape="-20.70,82.40 -7.50,91.20 -3.52,99.17"/>
    </edge>
    <edge id=":J0_33" function="internal">
        <lane id=":J0_33_0" index="0" disallow="pedestrian" speed="6.86" length="3.27" shape="-20.70,85.60 -17.94,85.21 -17.53,84.96"/>
    </edge>
    <edge id=":J0_34" function="internal">
        <lane id=":J0_34_0" index="0" disallow="pedestrian" speed="13.89" length="41.40" shape="-20.70,85.60 20.70,85.60"/>
        <lane id=":J0_34_1" index="1" disallow="pedestrian" speed="13.89" length="41.40" shape="-20.70,88.80 20.70,88.80"/>
        <lane id=":J0_34_2" index="2" disallow="pedestrian" speed="13.89" length="41.40" shape="-20.70,92.00 20.70,92.00"/>
        <lane id=":J0_34_3" index="3" disallow="pedestrian" speed="13.89" length="41.40" shape="-20.70,95.20 20.70,95.20"/>
        <lane id=":J0_34_4" index="4" disallow="pedestrian" speed="13.89" length="41.40" shape="-20.70,98.40 20.70,98.40"/>
    </edge>
    <edge id=":J0_39" function="internal">
        <lane id=":J0_39_0" index="0" disallow="pedestrian" speed="12.47" length="5.01" shape="-20.70,98.40 -15.74,99.11"/>
    </edge>
    <edge id=":J0_49" function="internal">
        <lane id=":J0_49_0" index="0" allow="pedestrian" speed="1.39" length="26.63" shape="-3.52,99.17 -3.10,100.00 -7.50,108.80 -20.70,117.60"/>
    </edge>
    <edge id=":J0_50" function="internal">
        <lane id=":J0_50_0" index="0" disallow="pedestrian" speed="6.86" length="6.90" shape="-17.53,84.96 -15.97,84.02 -14.79,82.06 -14.40,79.30"/>
    </edge>
    <edge id=":J0_51" function="internal">
        <lane id=":J0_51_0" index="0" disallow="pedestrian" speed="12.47" length="30.95" shape="-15.74,99.11 -10.94,99.79 -3.97,103.98 0.21,110.94 1.60,120.70"/>
    </edge>
    <edge id=":J0_c0" function="crossing" crossingEdges="E3 E4">
        <lane id=":J0_c0_0" index="0" allow="pedestrian" speed="2.78" length="32.00" width="4.00" shape="16.00,118.70 -16.00,118.70"/>
    </edge>
    <edge id=":J0_c1" function="crossing" crossingEdges="E1 -E1">
        <lane id=":J0_c1_0" index="0" allow="pedestrian" speed="2.78" length="32.00" width="4.00" shape="18.70,84.00 18.70,116.00"/>
    </edge>
    <edge id=":J0_c2" function="crossing" crossingEdges="E2 -E2">
        <lane id=":J0_c2_0" index="0" allow="pedestrian" speed="2.78" length="32.00" width="4.00" shape="-16.00,81.30 16.00,81.30"/>
    </edge>
    <edge id=":J0_c3" function="crossing" crossingEdges="E0 -E0">
        <lane id=":J0_c3_0" index="0" allow="pedestrian" speed="2.78" length="32.00" width="4.00" shape="-18.70,116.00 -18.70,84.00"/>
    </edge>
    <edge id=":J0_w0" function="walkingarea">
        <lane id=":J0_w0_0" index="0" allow="pedestrian" speed="2.78" length="3.83" width="4.00" shape="-20.70,116.00 -20.70,119.20 -19.20,120.70 -16.00,120.70 -16.13,119.26 -16.52,118.09 -17.18,117.17 -18.09,116.52 -19.26,116.13"/>
    </edge>
    <edge id=":J0_w1" function="walkingarea">
        <lane id=":J0_w1_0" index="0" allow="pedestrian" speed="2.78" length="3.83" width="4.00" shape="16.00,120.70 19.20,120.70 20.70,119.20 20.70,116.00 19.26,116.13 18.09,116.52 17.18,117.17 16.52,118.09 16.13,119.26"/>
    </edge>
    <edge id=":J0_w2" function="walkingarea">
        <lane id=":J0_w2_0" index="0" allow="pedestrian" speed="2.78" length="3.83" width="4.00" shape="20.70,84.00 20.70,80.80 19.20,79.30 16.00,79.30 16.13,80.74 16.52,81.91 17.18,82.83 18.09,83.48 19.26,83.87"/>
    </edge>
    <edge id=":J0_w3" function="walkingarea">
        <lane id=":J0_w3_0" index="0" allow="pedestrian" speed="2.78" length="3.83" width="4.00" shape="-16.00,79.30 -19.20,79.30 -20.70,80.80 -20.70,84.00 -19.26,83.87 -18.09,83.48 -17.18,82.83 -16.52,81.91 -16.13,80.74"/>
    </edge>
    <edge id=":J1_w0" function="walkingarea">
        <lane id=":J1_w0_0" index="0" allow="pedestrian" speed="2.78" length="35.20" width="3.20" shape="-100.00,84.00 -100.00,80.80 -100.00,119.20 -100.00,116.00"/>
    </edge>
    <edge id=":J2_w0" function="walkingarea">
        <lane id=":J2_w0_0" index="0" allow="pedestrian" speed="2.78" length="35.20" width="3.20" shape="100.00,116.00 100.00,119.20 100.00,80.80 100.00,84.00"/>
    </edge>
    <edge id=":J3_w0" function="walkingarea">
        <lane id=":J3_w0_0" index="0" allow="pedestrian" speed="2.78" length="35.20" width="3.20" shape="16.00,0.00 19.20,0.00 -19.20,0.00 -16.00,0.00"/>
    </edge>
    <edge id=":J4_w0" function="walkingarea">
        <lane id=":J4_w0_0" index="0" allow="pedestrian" speed="2.78" length="35.20" width="3.20" shape="-16.00,200.00 -19.20,200.00 19.20,200.00 16.00,200.00"/>
    </edge>

    <edge id="-E0" from="J1" to="J0" priority="-1">
        <lane id="-E0_0" index="0" allow="pedestrian" speed="1.39" length="79.30" shape="-100.00,82.40 -20.70,82.40"/>
        <lane id="-E0_1" index="1" disallow="pedestrian" speed="13.89" length="79.30" shape="-100.00,85.60 -20.70,85.60"/>
        <lane id="-E0_2" index="2" disallow="pedestrian" speed="13.89" length="79.30" shape="-100.00,88.80 -20.70,88.80"/>
        <lane id="-E0_3" index="3" disallow="pedestrian" speed="13.89" length="79.30" shape="-100.00,92.00 -20.70,92.00"/>
        <lane id="-E0_4" index="4" disallow="pedestrian" speed="13.89" length="79.30" shape="-100.00,95.20 -20.70,95.20"/>
        <lane id="-E0_5" index="5" disallow="pedestrian" speed="13.89" length="79.30" shape="-100.00,98.40 -20.70,98.40"/>
    </edge>
    <edge id="-E1" from="J2" to="J0" priority="-1">
        <lane id="-E1_0" index="0" allow="pedestrian" speed="1.39" length="79.30" shape="100.00,117.60 20.70,117.60"/>
        <lane id="-E1_1" index="1" disallow="pedestrian" speed="13.89" length="79.30" shape="100.00,114.40 20.70,114.40"/>
        <lane id="-E1_2" index="2" disallow="pedestrian" speed="13.89" length="79.30" shape="100.00,111.20 20.70,111.20"/>
        <lane id="-E1_3" index="3" disallow="pedestrian" speed="13.89" length="79.30" shape="100.00,108.00 20.70,108.00"/>
        <lane id="-E1_4" index="4" disallow="pedestrian" speed="13.89" length="79.30" shape="100.00,104.80 20.70,104.80"/>
        <lane id="-E1_5" index="5" disallow="pedestrian" speed="13.89" length="79.30" shape="100.00,101.60 20.70,101.60"/>
    </edge>
    <edge id="-E2" from="J3" to="J0" priority="-1">
        <lane id="-E2_0" index="0" allow="pedestrian" speed="1.39" length="79.30" shape="17.60,0.00 17.60,79.30"/>
        <lane id="-E2_1" index="1" disallow="pedestrian" speed="13.89" length="79.30" shape="14.40,0.00 14.40,79.30"/>
        <lane id="-E2_2" index="2" disallow="pedestrian" speed="13.89" length="79.30" shape="11.20,0.00 11.20,79.30"/>
        <lane id="-E2_3" index="3" disallow="pedestrian" speed="13.89" length="79.30" shape="8.00,0.00 8.00,79.30"/>
        <lane id="-E2_4" index="4" disallow="pedestrian" speed="13.89" length="79.30" shape="4.80,0.00 4.80,79.30"/>
        <lane id="-E2_5" index="5" disallow="pedestrian" speed="13.89" length="79.30" shape="1.60,0.00 1.60,79.30"/>
    </edge>
    <edge id="E0" from="J0" to="J1" priority="-1">
        <lane id="E0_0" index="0" allow="pedestrian" speed="1.39" length="79.30" shape="-20.70,117.60 -100.00,117.60"/>
        <lane id="E0_1" index="1" disallow="pedestrian" speed="13.89" length="79.30" shape="-20.70,114.40 -100.00,114.40"/>
        <lane id="E0_2" index="2" disallow="pedestrian" speed="13.89" length="79.30" shape="-20.70,111.20 -100.00,111.20"/>
        <lane id="E0_3" index="3" disallow="pedestrian" speed="13.89" length="79.30" shape="-20.70,108.00 -100.00,108.00"/>
        <lane id="E0_4" index="4" disallow="pedestrian" speed="13.89" length="79.30" shape="-20.70,104.80 -100.00,104.80"/>
        <lane id="E0_5" index="5" disallow="pedestrian" speed="13.89" length="79.30" shape="-20.70,101.60 -100.00,101.60"/>
    </edge>
    <edge id="E1" from="J0" to="J2" priority="-1">
        <lane id="E1_0" index="0" allow="pedestrian" speed="1.39" length="79.30" shape="20.70,82.40 100.00,82.40"/>
        <lane id="E1_1" index="1" disallow="pedestrian" speed="13.89" length="79.30" shape="20.70,85.60 100.00,85.60"/>
        <lane id="E1_2" index="2" disallow="pedestrian" speed="13.89" length="79.30" shape="20.70,88.80 100.00,88.80"/>
        <lane id="E1_3" index="3" disallow="pedestrian" speed="13.89" length="79.30" shape="20.70,92.00 100.00,92.00"/>
        <lane id="E1_4" index="4" disallow="pedestrian" speed="13.89" length="79.30" shape="20.70,95.20 100.00,95.20"/>
        <lane id="E1_5" index="5" disallow="pedestrian" speed="13.89" length="79.30" shape="20.70,98.40 100.00,98.40"/>
    </edge>
    <edge id="E2" from="J0" to="J3" priority="-1">
        <lane id="E2_0" index="0" allow="pedestrian" speed="1.39" length="79.30" shape="-17.60,79.30 -17.60,0.00"/>
        <lane id="E2_1" index="1" disallow="pedestrian" speed="13.89" length="79.30" shape="-14.40,79.30 -14.40,0.00"/>
        <lane id="E2_2" index="2" disallow="pedestrian" speed="13.89" length="79.30" shape="-11.20,79.30 -11.20,0.00"/>
        <lane id="E2_3" index="3" disallow="pedestrian" speed="13.89" length="79.30" shape="-8.00,79.30 -8.00,0.00"/>
        <lane id="E2_4" index="4" disallow="pedestrian" speed="13.89" length="79.30" shape="-4.80,79.30 -4.80,0.00"/>
        <lane id="E2_5" index="5" disallow="pedestrian" speed="13.89" length="79.30" shape="-1.60,79.30 -1.60,0.00"/>
    </edge>
    <edge id="E3" from="J0" to="J4" priority="-1">
        <lane id="E3_0" index="0" allow="pedestrian" speed="1.39" length="79.30" shape="17.60,120.70 17.60,200.00"/>
        <lane id="E3_1" index="1" disallow="pedestrian" speed="13.89" length="79.30" shape="14.40,120.70 14.40,200.00"/>
        <lane id="E3_2" index="2" disallow="pedestrian" speed="13.89" length="79.30" shape="11.20,120.70 11.20,200.00"/>
        <lane id="E3_3" index="3" disallow="pedestrian" speed="13.89" length="79.30" shape="8.00,120.70 8.00,200.00"/>
        <lane id="E3_4" index="4" disallow="pedestrian" speed="13.89" length="79.30" shape="4.80,120.70 4.80,200.00"/>
        <lane id="E3_5" index="5" disallow="pedestrian" speed="13.89" length="79.30" shape="1.60,120.70 1.60,200.00"/>
    </edge>
    <edge id="E4" from="J4" to="J0" priority="-1">
        <lane id="E4_0" index="0" allow="pedestrian" speed="1.39" length="79.30" shape="-17.60,200.00 -17.60,120.70"/>
        <lane id="E4_1" index="1" disallow="pedestrian" speed="13.89" length="79.30" shape="-14.40,200.00 -14.40,120.70"/>
        <lane id="E4_2" index="2" disallow="pedestrian" speed="13.89" length="79.30" shape="-11.20,200.00 -11.20,120.70"/>
        <lane id="E4_3" index="3" disallow="pedestrian" speed="13.89" length="79.30" shape="-8.00,200.00 -8.00,120.70"/>
        <lane id="E4_4" index="4" disallow="pedestrian" speed="13.89" length="79.30" shape="-4.80,200.00 -4.80,120.70"/>
        <lane id="E4_5" index="5" disallow="pedestrian" speed="13.89" length="79.30" shape="-1.60,200.00 -1.60,120.70"/>
    </edge>

    <tlLogic id="J0" type="static" programID="0" offset="0">
        <phase duration="36" state="gGggGGGGGgrrrrrrrrrrgGggGGGGGgrrrrrrrrrrrGrG"/>
        <phase duration="5"  state="gGggGGGGGgrrrrrrrrrrgGggGGGGGgrrrrrrrrrrrrrr"/>
        <phase duration="3"  state="yyyyyyyyyyrrrrrrrrrryyyyyyyyyyrrrrrrrrrrrrrr"/>
        <phase duration="35" state="rrrrrrrrrrgGggGGGGGgrrrrrrrrrrgGggGGGGGgGrGr"/>
        <phase duration="5"  state="rrrrrrrrrrgGggGGGGGgrrrrrrrrrrgGggGGGGGgrrrr"/>
        <phase duration="3"  state="rrrrrrrrrryyyyyyyyyyrrrrrrrrrryyyyyyyyyyrrrr"/>
        <phase duration="3"  state="rrrrrrrrrrrrrrrrrrrrrrrrrrrrrrrrrrrrrrrrrrrr"/>
    </tlLogic>

    <junction id="J0" type="traffic_light" x="0.00" y="100.00" incLanes="E4_0 E4_1 E4_2 E4_3 E4_4 E4_5 -E1_0 -E1_1 -E1_2 -E1_3 -E1_4 -E1_5 -E2_0 -E2_1 -E2_2 -E2_3 -E2_4 -E2_5 -E0_0 -E0_1 -E0_2 -E0_3 -E0_4 -E0_5 :J0_w1_0 :J0_w2_0 :J0_w3_0 :J0_w0_0" intLanes=":J0_0_0 :J0_1_0 :J0_40_0 :J0_41_0 :J0_4_0 :J0_4_1 :J0_4_2 :J0_4_3 :J0_4_4 :J0_42_0 :J0_10_0 :J0_11_0 :J0_43_0 :J0_44_0 :J0_14_0 :J0_14_1 :J0_14_2 :J0_14_3 :J0_14_4 :J0_45_0 :J0_20_0 :J0_21_0 :J0_46_0 :J0_47_0 :J0_24_0 :J0_24_1 :J0_24_2 :J0_24_3 :J0_24_4 :J0_48_0 :J0_30_0 :J0_31_0 :J0_49_0 :J0_50_0 :J0_34_0 :J0_34_1 :J0_34_2 :J0_34_3 :J0_34_4 :J0_51_0 :J0_c0_0 :J0_c1_0 :J0_c2_0 :J0_c3_0" shape="-19.20,120.70 19.20,120.70 19.37,119.87 19.58,119.58 19.87,119.37 20.24,119.24 20.70,119.20 20.70,80.80 19.87,80.63 19.58,80.43 19.37,80.13 19.24,79.76 19.20,79.30 -19.20,79.30 -19.37,80.13 -19.58,80.43 -19.87,80.63 -20.24,80.76 -20.70,80.80 -20.70,119.20 -19.87,119.37 -19.58,119.57 -19.37,119.87 -19.24,120.24">
        <request index="0"  response="10010000000000000000000000000000000000000000" foes="10010000000100000000000000000000100000000000" cont="0"/>
        <request index="1"  response="01011000001000000000000000000000000000000000" foes="01011111111011100000010001111100100000001000" cont="0"/>
        <request index="2"  response="00011000000000011111001000000010010000000000" foes="00011000000000011111001000000010010000000000" cont="1"/>
        <request index="3"  response="10010000000000000000000000000000000000000010" foes="10010000000100000000000001111100100000000010" cont="1"/>
        <request index="4"  response="01011000001000000000000010000000000000000000" foes="01011111111010100000010011111100100000000000" cont="0"/>
        <request index="5"  response="01011000001000000000000010000000000000000000" foes="01011111111010100000010011111100100000000000" cont="0"/>
        <request index="6"  response="01011000001000000000000010000000000000000000" foes="01011111111010100000010011111100100000000000" cont="0"/>
        <request index="7"  response="01011000001000000000000010000000000000000000" foes="01011111111010100000010011111100100000000000" cont="0"/>
        <request index="8"  response="01011000001000000000000010000000000000000000" foes="01011111111010100000010011111100100000000000" cont="0"/>
        <request index="9"  response="00111000000000011111001010000000000000000000" foes="00111111110000011111001011111101100000000000" cont="1"/>
        <request index="10" response="00110000000000000000001000000000000000000000" foes="00110000000000000000001000000000000000000100" cont="0"/>
        <request index="11" response="10100000000000011111001000000000001111111011" foes="10101000000100011111001000000010001111111011" cont="0"/>
        <request index="12" response="00100111110010000000100100000000001000000000" foes="00100111110010000000100100000000001000000000" cont="1"/>
        <request index="13" response="00110000000000011111001000000000100000000000" foes="00110000000000011111001000000000100000000100" cont="1"/>
        <request index="14" response="10100000000000111111001000000000001111111010" foes="10101000000100111111001000000000001111111010" cont="0"/>
        <request index="15" response="10100000000000111111001000000000001111111010" foes="10101000000100111111001000000000001111111010" cont="0"/>
        <request index="16" response="10100000000000111111001000000000001111111010" foes="10101000000100111111001000000000001111111010" cont="0"/>
        <request index="17" response="10100000000000111111001000000000001111111010" foes="10101000000100111111001000000000001111111010" cont="0"/>
        <request index="18" response="10100000000000111111001000000000001111111010" foes="10101000000100111111001000000000001111111010" cont="0"/>
        <request index="19" response="01100111110010111111001000000000001111110000" foes="01100111110010111111011000000000001111110000" cont="1"/>
        <request index="20" response="01100000000000000000000000000000000000000000" foes="01100000000010000000000000000001000000000000" cont="0"/>
        <request index="21" response="01010000000000000000000010000010000000000000" foes="01010111110010000000100011111110111000000100" cont="0"/>
        <request index="22" response="01000000001001000000000010000000000111110010" foes="01000000001001000000000010000000000111110010" cont="1"/>
        <request index="23" response="01100000000000000000001000000000000000000000" foes="01100111110010000000001000000001000000000000" cont="1"/>
        <request index="24" response="01011000000000000000000010000010000000000000" foes="01011111110010000000000011111110101000000100" cont="0"/>
        <request index="25" response="01011000000000000000000010000010000000000000" foes="01011111110010000000000011111110101000000100" cont="0"/>
        <request index="26" response="01011000000000000000000010000010000000000000" foes="01011111110010000000000011111110101000000100" cont="0"/>
        <request index="27" response="01011000000000000000000010000010000000000000" foes="01011111110010000000000011111110101000000100" cont="0"/>
        <request index="28" response="01011000000000000000000010000010000000000000" foes="01011111110010000000000011111110101000000100" cont="0"/>
        <request index="29" response="11001000000000000000000010000000000111110010" foes="11001111110110000000000011111100000111110010" cont="1"/>
        <request index="30" response="11000000000000000000000000000000000000000010" foes="11000000000000000000010000000000000000000010" cont="0"/>
        <request index="31" response="10100000000000111111101100000000000111110010" foes="10100000001000111111101110000001000111110010" cont="0"/>
        <request index="32" response="10000000000000100000000001111100100000001001" foes="10000000000000100000000001111100100000001001" cont="1"/>
        <request index="33" response="11000000000010000000000000000000000111110010" foes="11000000000010000000010000000000000111110010" cont="1"/>
        <request index="34" response="10100000000000111111101000000000001111110010" foes="10100000000000111111101010000001001111110010" cont="0"/>
        <request index="35" response="10100000000000111111101000000000001111110010" foes="10100000000000111111101010000001001111110010" cont="0"/>
        <request index="36" response="10100000000000111111101000000000001111110010" foes="10100000000000111111101010000001001111110010" cont="0"/>
        <request index="37" response="10100000000000111111101000000000001111110010" foes="10100000000000111111101010000001001111110010" cont="0"/>
        <request index="38" response="10100000000000111111101000000000001111110010" foes="10100000000000111111101010000001001111110010" cont="0"/>
        <request index="39" response="10010000000000111111000001111100101111110010" foes="10010000000000111111000001111100101111110110" cont="1"/>
        <request index="40" response="00000000000000000000000000000000000000000000" foes="00001000000000011111001000000010011111111111" cont="0"/>
        <request index="41" response="00000000000000000000000000000000000000000000" foes="00000111110010000000100111111111111000000000" cont="0"/>
        <request index="42" response="00000000000000000000000000000000000000000000" foes="00000000001001111111111110000000000111110010" cont="0"/>
        <request index="43" response="00000000000000000000000000000000000000000000" foes="00001111111111100000000001111100100000001001" cont="0"/>
    </junction>
    <junction id="J1" type="dead_end" x="-100.00" y="100.00" incLanes="E0_0 E0_1 E0_2 E0_3 E0_4 E0_5" intLanes="" shape="-100.00,100.00 -100.00,119.20 -100.00,100.00"/>
    <junction id="J2" type="dead_end" x="100.00" y="100.00" incLanes="E1_0 E1_1 E1_2 E1_3 E1_4 E1_5" intLanes="" shape="100.00,100.00 100.00,80.80 100.00,100.00"/>
    <junction id="J3" type="dead_end" x="0.00" y="0.00" incLanes="E2_0 E2_1 E2_2 E2_3 E2_4 E2_5" intLanes="" shape="0.00,0.00 -19.20,0.00 0.00,0.00"/>
    <junction id="J4" type="dead_end" x="0.00" y="200.00" incLanes="E3_0 E3_1 E3_2 E3_3 E3_4 E3_5" intLanes="" shape="0.00,200.00 19.20,200.00 0.00,200.00"/>

    <junction id=":J0_40_0" type="internal" x="-0.83" y="103.52" incLanes=":J0_2_0 -E0_5 -E1_0 -E1_1 -E2_0 -E2_1 -E2_2 -E2_3 -E2_4 -E2_5" intLanes=":J0_10_0 :J0_13_0 :J0_21_0 :J0_24_0 :J0_24_1 :J0_24_2 :J0_24_3 :J0_24_4 :J0_39_0 :J0_c0_0 :J0_c0_0"/>
    <junction id=":J0_41_0" type="internal" x="-15.04" y="117.53" incLanes=":J0_3_0 E4_0" intLanes=":J0_1_0 :J0_11_0 :J0_14_0 :J0_14_1 :J0_14_2 :J0_14_3 :J0_14_4 :J0_29_0 :J0_32_0 :J0_c0_0 :J0_c3_0"/>
    <junction id=":J0_42_0" type="internal" x="-0.89" y="115.74" incLanes=":J0_9_0 -E2_0 -E2_1 -E2_2 -E2_3 -E2_4 -E2_5" intLanes=":J0_11_0 :J0_12_0 :J0_14_0 :J0_14_1 :J0_14_2 :J0_14_3 :J0_14_4 :J0_19_0 :J0_20_0 :J0_21_0 :J0_23_0 :J0_24_0 :J0_24_1 :J0_24_2 :J0_24_3 :J0_24_4 :J0_31_0 :J0_34_0 :J0_34_1 :J0_34_2 :J0_34_3 :J0_34_4 :J0_39_0 :J0_c0_0 :J0_c1_0"/>
    <junction id=":J0_43_0" type="internal" x="3.52" y="100.83" incLanes=":J0_12_0 -E0_0 -E0_1 -E0_2 -E0_3 -E0_4 -E0_5 -E2_0 -E2_1 E4_5" intLanes=":J0_9_0 :J0_20_0 :J0_23_0 :J0_31_0 :J0_34_0 :J0_34_1 :J0_34_2 :J0_34_3 :J0_34_4 :J0_c1_0 :J0_c1_0"/>
    <junction id=":J0_44_0" type="internal" x="17.53" y="115.04" incLanes=":J0_13_0 -E1_0" intLanes=":J0_2_0 :J0_11_0 :J0_21_0 :J0_24_0 :J0_24_1 :J0_24_2 :J0_24_3 :J0_24_4 :J0_39_0 :J0_c0_0 :J0_c1_0"/>
    <junction id=":J0_45_0" type="internal" x="15.74" y="100.89" incLanes=":J0_19_0 -E0_0 -E0_1 -E0_2 -E0_3 -E0_4 -E0_5" intLanes=":J0_1_0 :J0_4_0 :J0_4_1 :J0_4_2 :J0_4_3 :J0_4_4 :J0_9_0 :J0_21_0 :J0_22_0 :J0_24_0 :J0_24_1 :J0_24_2 :J0_24_3 :J0_24_4 :J0_29_0 :J0_30_0 :J0_31_0 :J0_33_0 :J0_34_0 :J0_34_1 :J0_34_2 :J0_34_3 :J0_34_4 :J0_c1_0 :J0_c2_0"/>